Version 4
SHEET 1 2340 1640
WIRE -1168 512 -1360 512
WIRE -1168 576 -1168 512
WIRE -1168 576 -1200 576
WIRE -880 576 -1168 576
WIRE -864 576 -880 576
WIRE -752 576 -784 576
WIRE -656 576 -672 576
WIRE -544 576 -656 576
WIRE -208 576 -320 576
WIRE 0 576 -48 576
WIRE -1520 592 -1744 592
WIRE -1328 592 -1520 592
WIRE -1744 608 -1744 592
WIRE -1360 624 -1360 512
WIRE -1328 624 -1360 624
WIRE -1744 704 -1744 688
WIRE -208 704 -1744 704
WIRE 0 704 -48 704
WIRE -1744 720 -1744 704
WIRE -1024 848 -1152 848
WIRE -1008 848 -1024 848
WIRE -880 848 -880 576
WIRE -880 848 -928 848
WIRE -1152 864 -1152 848
WIRE -1152 864 -1200 864
WIRE -1520 880 -1744 880
WIRE -1472 880 -1520 880
WIRE -1360 880 -1392 880
WIRE -1120 896 -1200 896
WIRE -1024 896 -1024 848
WIRE -1024 896 -1040 896
WIRE -1152 928 -1200 928
WIRE -1520 944 -1648 944
WIRE -1472 944 -1520 944
WIRE -1360 944 -1392 944
WIRE -1744 960 -1744 880
WIRE -1648 960 -1648 944
WIRE -1120 960 -1200 960
WIRE -1024 960 -1040 960
WIRE -1152 1008 -1152 928
WIRE -1024 1008 -1024 960
WIRE -1024 1008 -1152 1008
WIRE -1008 1008 -1024 1008
WIRE -656 1008 -656 576
WIRE -656 1008 -928 1008
WIRE 240 1040 240 1008
WIRE -1744 1056 -1744 1040
WIRE -1648 1056 -1648 1040
WIRE -1936 1072 -1984 1072
WIRE -1888 1072 -1936 1072
WIRE 240 1168 240 1120
WIRE -1936 1200 -1936 1072
WIRE -1024 1216 -1152 1216
WIRE -1008 1216 -1024 1216
WIRE -544 1216 -928 1216
WIRE -208 1216 -320 1216
WIRE 16 1216 -48 1216
WIRE -1152 1232 -1152 1216
WIRE -1152 1232 -1200 1232
WIRE -1520 1248 -1744 1248
WIRE -1472 1248 -1520 1248
WIRE -1360 1248 -1392 1248
WIRE -1120 1264 -1200 1264
WIRE -1024 1264 -1024 1216
WIRE -1024 1264 -1040 1264
WIRE 240 1280 240 1248
WIRE -1152 1296 -1200 1296
WIRE -1520 1312 -1648 1312
WIRE -1472 1312 -1520 1312
WIRE -1360 1312 -1392 1312
WIRE -1744 1328 -1744 1248
WIRE -1648 1328 -1648 1312
WIRE -1120 1328 -1200 1328
WIRE -1024 1328 -1040 1328
WIRE -1152 1376 -1152 1296
WIRE -1024 1376 -1024 1328
WIRE -1024 1376 -1152 1376
WIRE -1008 1376 -1024 1376
WIRE -544 1376 -928 1376
WIRE -208 1376 -320 1376
WIRE 16 1376 -48 1376
WIRE -1744 1424 -1744 1408
WIRE -1648 1424 -1648 1408
FLAG -1888 992 +5V
FLAG -1888 1152 -5V
FLAG 0 576 Dut+
FLAG -1200 608 +5V
FLAG -1200 640 -5V
FLAG 0 704 Dut-
FLAG 16 1376 Dut-
FLAG -1232 1184 +2.5V
FLAG -1232 1376 -2.5V
FLAG -1232 1008 -2.5V
FLAG -1232 816 +2.5V
FLAG -1264 816 0
FLAG -1264 1184 0
FLAG 16 1216 Dut+
FLAG -1984 992 +2.5V
FLAG -1984 1152 -2.5V
FLAG -1744 720 0
FLAG 240 1008 Dut+
FLAG 240 1280 Dut-
FLAG -1520 944 1+
FLAG -1520 880 1-
FLAG -1744 1056 0
FLAG -1648 1056 0
FLAG -1520 1312 2+
FLAG -1520 1248 2-
FLAG -1648 1424 0
FLAG -1744 1424 0
FLAG -1936 1200 0
FLAG -1520 592 W1
SYMBOL voltage -1888 976 R0
WINDOW 123 0 0 Left 0
WINDOW 39 0 0 Left 0
WINDOW 0 37 55 Left 2
WINDOW 3 -7 56 Left 2
SYMATTR InstName V4
SYMATTR Value 5
SYMBOL voltage -1888 1056 R0
WINDOW 123 0 0 Left 0
WINDOW 39 0 0 Left 0
WINDOW 0 37 57 Left 2
WINDOW 3 -7 58 Left 2
SYMATTR InstName V5
SYMATTR Value 5
SYMBOL Misc\\signal -1744 592 R0
WINDOW 123 -80 95 Left 2
WINDOW 39 0 0 Left 0
WINDOW 3 -223 47 Left 2
WINDOW 0 -36 11 Left 2
SYMATTR Value2 AC 0.1
SYMATTR Value SINE(0 0.1 1K)
SYMATTR InstName V6
SYMBOL res 224 1024 R0
SYMATTR InstName DUT
SYMATTR Value {R}
SYMBOL cap -480 560 R90
WINDOW 0 0 32 VBottom 2
WINDOW 3 32 32 VTop 2
SYMATTR InstName C2
SYMATTR Value {C}
SYMBOL ind -384 560 R90
WINDOW 0 5 56 VBottom 2
WINDOW 3 32 56 VTop 2
SYMATTR InstName L2
SYMATTR Value 2n
SYMBOL ind -112 688 R90
WINDOW 0 5 56 VBottom 2
WINDOW 3 32 56 VTop 2
SYMATTR InstName L3
SYMATTR Value 10n
SYMBOL ind -112 560 R90
WINDOW 0 5 56 VBottom 2
WINDOW 3 32 56 VTop 2
SYMATTR InstName L4
SYMATTR Value 10n
SYMBOL OpAmps\\ADA4940 -1232 1280 M0
SYMATTR InstName U6
SYMBOL OpAmps\\ADA4940 -1232 912 M0
WINDOW 3 52 91 Left 2
SYMATTR InstName U3
SYMBOL OPA891 -1264 608 R0
SYMATTR InstName U1
SYMBOL voltage -1984 976 R0
WINDOW 123 0 0 Left 0
WINDOW 39 0 0 Left 0
WINDOW 0 -65 53 Left 2
WINDOW 3 -18 56 Left 2
SYMATTR InstName V1
SYMATTR Value 2.5
SYMBOL voltage -1984 1056 R0
WINDOW 123 0 0 Left 0
WINDOW 39 0 0 Left 0
WINDOW 0 -66 55 Left 2
WINDOW 3 -18 55 Left 2
SYMATTR InstName V2
SYMATTR Value 2.5
SYMBOL ind -656 560 R90
WINDOW 0 5 56 VBottom 2
WINDOW 3 32 56 VTop 2
SYMATTR InstName LShunt
SYMATTR Value 1n
SYMBOL cap -1040 896 R0
SYMATTR InstName C4
SYMATTR Value 0.5p
SYMBOL Misc\\EuropeanResistor -880 592 R270
WINDOW 0 27 56 VTop 2
WINDOW 3 5 56 VBottom 2
SYMATTR InstName Shunt
SYMATTR Value 0.5
SYMBOL Misc\\EuropeanResistor -144 592 R270
WINDOW 0 27 56 VTop 2
WINDOW 3 5 56 VBottom 2
SYMATTR InstName R7
SYMATTR Value 10m
SYMBOL Misc\\EuropeanResistor -144 720 R270
WINDOW 0 27 56 VTop 2
WINDOW 3 5 56 VBottom 2
SYMATTR InstName R8
SYMATTR Value 10m
SYMBOL Misc\\EuropeanResistor -1488 864 M90
WINDOW 0 5 56 VBottom 2
WINDOW 3 3 56 VTop 2
SYMATTR InstName R15
SYMATTR Value 100
SYMBOL Misc\\EuropeanResistor -1488 928 M90
WINDOW 0 5 56 VBottom 2
WINDOW 3 3 56 VTop 2
SYMATTR InstName R16
SYMATTR Value 100
SYMBOL Misc\\EuropeanResistor -1136 880 M90
WINDOW 0 5 56 VBottom 2
WINDOW 3 3 56 VTop 2
SYMATTR InstName R5
SYMATTR Value 10k
SYMBOL Misc\\EuropeanResistor -1136 944 M90
WINDOW 0 5 56 VBottom 2
WINDOW 3 3 56 VTop 2
SYMATTR InstName R6
SYMATTR Value 10k
SYMBOL Misc\\EuropeanResistor -1024 832 M90
WINDOW 0 5 56 VBottom 2
WINDOW 3 27 56 VTop 2
SYMATTR InstName R3
SYMATTR Value 1k
SYMBOL Misc\\EuropeanResistor -1024 992 M90
WINDOW 0 5 56 VBottom 2
WINDOW 3 27 56 VTop 2
SYMATTR InstName R4
SYMATTR Value 1k
SYMBOL Misc\\EuropeanResistor -416 592 R270
WINDOW 0 27 56 VTop 2
WINDOW 3 5 56 VBottom 2
SYMATTR InstName R2
SYMATTR Value 50m
SYMBOL Misc\\EuropeanResistor -1728 1056 R180
WINDOW 0 31 76 Left 2
WINDOW 3 31 40 Left 2
SYMATTR InstName R13
SYMATTR Value 200k
SYMBOL Misc\\EuropeanResistor -1632 1056 R180
WINDOW 0 31 76 Left 2
WINDOW 3 31 40 Left 2
SYMATTR InstName R14
SYMATTR Value 200k
SYMBOL Misc\\EuropeanResistor -1488 1232 M90
WINDOW 0 5 56 VBottom 2
WINDOW 3 3 56 VTop 2
SYMATTR InstName R9
SYMATTR Value 100
SYMBOL Misc\\EuropeanResistor -1488 1296 M90
WINDOW 0 5 56 VBottom 2
WINDOW 3 3 56 VTop 2
SYMATTR InstName R10
SYMATTR Value 100
SYMBOL cap -1040 1264 R0
SYMATTR InstName C3
SYMATTR Value 0.5p
SYMBOL Misc\\EuropeanResistor -1136 1248 M90
WINDOW 0 5 56 VBottom 2
WINDOW 3 3 56 VTop 2
SYMATTR InstName R11
SYMATTR Value 10k
SYMBOL Misc\\EuropeanResistor -1136 1312 M90
WINDOW 0 5 56 VBottom 2
WINDOW 3 3 56 VTop 2
SYMATTR InstName R12
SYMATTR Value 10k
SYMBOL Misc\\EuropeanResistor -1024 1200 M90
WINDOW 0 5 56 VBottom 2
WINDOW 3 27 56 VTop 2
SYMATTR InstName R17
SYMATTR Value 1k
SYMBOL Misc\\EuropeanResistor -1024 1360 M90
WINDOW 0 5 56 VBottom 2
WINDOW 3 27 56 VTop 2
SYMATTR InstName R18
SYMATTR Value 1k
SYMBOL cap -480 1392 M270
WINDOW 0 32 32 VTop 2
WINDOW 3 0 32 VBottom 2
SYMATTR InstName C5
SYMATTR Value {C}
SYMBOL ind -496 1360 M90
WINDOW 0 5 56 VBottom 2
WINDOW 3 32 56 VTop 2
SYMATTR InstName L5
SYMATTR Value 2n
SYMBOL Misc\\EuropeanResistor -304 1392 M270
WINDOW 0 27 56 VTop 2
WINDOW 3 5 56 VBottom 2
SYMATTR InstName R19
SYMATTR Value 50m
SYMBOL cap -480 1232 M270
WINDOW 0 32 32 VTop 2
WINDOW 3 0 32 VBottom 2
SYMATTR InstName C6
SYMATTR Value {C}
SYMBOL ind -496 1200 M90
WINDOW 0 5 56 VBottom 2
WINDOW 3 32 56 VTop 2
SYMATTR InstName L6
SYMATTR Value 2n
SYMBOL Misc\\EuropeanResistor -304 1232 M270
WINDOW 0 27 56 VTop 2
WINDOW 3 5 56 VBottom 2
SYMATTR InstName R21
SYMATTR Value 50m
SYMBOL ind -224 1200 M90
WINDOW 0 5 56 VBottom 2
WINDOW 3 32 56 VTop 2
SYMATTR InstName L7
SYMATTR Value 10n
SYMBOL ind -224 1360 M90
WINDOW 0 5 56 VBottom 2
WINDOW 3 32 56 VTop 2
SYMATTR InstName L8
SYMATTR Value 10n
SYMBOL Misc\\EuropeanResistor -32 1392 M270
WINDOW 0 27 56 VTop 2
WINDOW 3 5 56 VBottom 2
SYMATTR InstName R22
SYMATTR Value 10m
SYMBOL Misc\\EuropeanResistor -32 1232 M270
WINDOW 0 27 56 VTop 2
WINDOW 3 5 56 VBottom 2
SYMATTR InstName R23
SYMATTR Value 10m
SYMBOL Misc\\EuropeanResistor -1632 1424 R180
WINDOW 0 31 76 Left 2
WINDOW 3 31 40 Left 2
SYMATTR InstName R24
SYMATTR Value 200k
SYMBOL Misc\\EuropeanResistor -1728 1424 R180
WINDOW 0 31 76 Left 2
WINDOW 3 31 40 Left 2
SYMATTR InstName R25
SYMATTR Value 200k
SYMBOL voltage 240 1152 R0
WINDOW 123 0 0 Left 0
WINDOW 39 0 0 Left 0
SYMATTR InstName V3
SYMATTR Value 3.3
TEXT 168 792 Left 2 !.ac dec 100 1 25Meg
TEXT 168 832 Left 2 !.param C=1000M
TEXT -808 440 Left 4 ;Shunt
TEXT -528 440 Left 4 ;DC Bias Cap
TEXT -184 440 Left 4 ;Wiring
TEXT -72 1088 Right 4 ;Wiring
TEXT -320 1088 Right 4 ;DC Bias Caps
TEXT -1888 464 Left 4 ;AD2
TEXT 168 872 Left 2 !.param R 1m
RECTANGLE Normal -304 656 -560 496 2
RECTANGLE Normal -16 784 -240 496 2
RECTANGLE Normal -624 656 -912 496 2
RECTANGLE Normal -304 1136 -560 1456 2
RECTANGLE Normal -16 1136 -240 1456 2
RECTANGLE Normal -1616 1504 -2080 496 2
